                                  MODFLOW-2000
      U.S. GEOLOGICAL SURVEY MODULAR FINITE-DIFFERENCE GROUND-WATER FLOW MODEL
                           VERSION 1.19.01 03/25/2010


 This model run produced both GLOBAL and LIST files.  This is the GLOBAL file.

 GLOBAL LISTING FILE: "molok_GW_flow_model.glo"
                         UNIT  701

 OPENING "molok_GW_flow_model.out"
 FILE TYPE:LIST   UNIT  702   STATUS:REPLACE
 FORMAT:FORMATTED              ACCESS:SEQUENTIAL          

 OPENING "molok_GW_flow_model.hed"
 FILE TYPE:DATA(BINARY)   UNIT  730   STATUS:UNKNOWN
 FORMAT:BINARY                 ACCESS:SEQUENTIAL          

 OPENING "molok_GW_flow_model.ccf"
 FILE TYPE:DATA(BINARY)   UNIT  740   STATUS:UNKNOWN
 FORMAT:BINARY                 ACCESS:SEQUENTIAL          

 OPENING "molok_GW_flow_model.lmt"
 FILE TYPE:LMT6   UNIT  718   STATUS:OLD    
 FORMAT:FORMATTED              ACCESS:SEQUENTIAL          
#                                                                                                                                                                                                       
# Obs-Sen-Pes Process Input Files                                                                                                                                                                       

 OPENING "molok_GW_flow_model.obs"
 FILE TYPE:OBS   UNIT  750   STATUS:OLD    
 FORMAT:FORMATTED              ACCESS:SEQUENTIAL          

 OPENING "molok_GW_flow_model.hob"
 FILE TYPE:HOB   UNIT  751   STATUS:OLD    
 FORMAT:FORMATTED              ACCESS:SEQUENTIAL          

 OPENING "molok_GW_flow_model.drob"
 FILE TYPE:DROB   UNIT  754   STATUS:OLD    
 FORMAT:FORMATTED              ACCESS:SEQUENTIAL          

 OPENING "molok_GW_flow_model.chob"
 FILE TYPE:CHOB   UNIT  755   STATUS:OLD    
 FORMAT:FORMATTED              ACCESS:SEQUENTIAL          
#                                                                                                                                                                                                       
# Global Input Files                                                                                                                                                                                    

 OPENING "molok_GW_flow_model.dis"
 FILE TYPE:DIS   UNIT  719   STATUS:OLD    
 FORMAT:FORMATTED              ACCESS:SEQUENTIAL          
#                                                                                                                                                                                                       
# Flow Process Input Files                                                                                                                                                                              

 OPENING "molok_GW_flow_model.ba6"
 FILE TYPE:BAS6   UNIT  703   STATUS:OLD    
 FORMAT:FORMATTED              ACCESS:SEQUENTIAL          

 OPENING "molok_GW_flow_model.lpf"
 FILE TYPE:LPF   UNIT  704   STATUS:OLD    
 FORMAT:FORMATTED              ACCESS:SEQUENTIAL          

 OPENING "molok_GW_flow_model.oc"
 FILE TYPE:OC   UNIT  715   STATUS:OLD    
 FORMAT:FORMATTED              ACCESS:SEQUENTIAL          

 OPENING "molok_GW_flow_model.rch"
 FILE TYPE:RCH   UNIT  716   STATUS:OLD    
 FORMAT:FORMATTED              ACCESS:SEQUENTIAL          

 OPENING "molok_GW_flow_model.hfb"
 FILE TYPE:HFB6   UNIT  707   STATUS:OLD    
 FORMAT:FORMATTED              ACCESS:SEQUENTIAL          

 OPENING "molok_GW_flow_model.wel"
 FILE TYPE:WEL   UNIT  709   STATUS:OLD    
 FORMAT:FORMATTED              ACCESS:SEQUENTIAL          

 OPENING "molok_GW_flow_model.drn"
 FILE TYPE:DRN   UNIT  710   STATUS:OLD    
 FORMAT:FORMATTED              ACCESS:SEQUENTIAL          

 OPENING "molok_GW_flow_model.chd"
 FILE TYPE:CHD   UNIT  713   STATUS:OLD    
 FORMAT:FORMATTED              ACCESS:SEQUENTIAL          

 OPENING "molok_GW_flow_model.pcg"
 FILE TYPE:PCG   UNIT  714   STATUS:OLD    
 FORMAT:FORMATTED              ACCESS:SEQUENTIAL          

 THE FREE FORMAT OPTION HAS BEEN SELECTED

 DISCRETIZATION INPUT DATA READ FROM UNIT  719
 # MF2K DISCRETIZATION FILE
 #
 #
 # NLAY NROW NCOL NPER TIMEUNITS LENUNITS
    3 LAYERS       168 ROWS       369 COLUMNS
    1 STRESS PERIOD(S) IN SIMULATION
 MODEL TIME UNIT IS DAYS
 MODEL LENGTH UNIT IS METERS
 THE GROUND-WATER TRANSPORT PROCESS IS INACTIVE

 THE OBSERVATION PROCESS IS ACTIVE
 THE SENSITIVITY PROCESS IS INACTIVE
 THE PARAMETER-ESTIMATION PROCESS IS INACTIVE

 MODE: FORWARD WITH OBSERVATIONS

  Confining bed flag for each layer:
   0   0   0

    1674321  ELEMENTS OF GX ARRAY USED OUT OF    1674321
     185976  ELEMENTS OF GZ ARRAY USED OUT OF     185976
     185976  ELEMENTS OF IG ARRAY USED OUT OF     185976



                               DELR
 READING ON UNIT  719 WITH FORMAT: (FREE)              



                               DELC
 READING ON UNIT  719 WITH FORMAT: (FREE)              


 STRESS PERIOD     LENGTH       TIME STEPS     MULTIPLIER FOR DELT    SS FLAG
 ----------------------------------------------------------------------------
        1         1.000000          1                    1.000         SS

 STEADY-STATE SIMULATION




 LPF1 -- LAYER PROPERTY FLOW PACKAGE, VERSION 1, 1/11/2000
         INPUT READ FROM UNIT  704
 CELL-BY-CELL FLOWS WILL BE SAVED ON UNIT  740
 HEAD AT CELLS THAT CONVERT TO DRY=  -888.00    
 No named parameters

   LAYER FLAGS:
 LAYER       LAYTYP        LAYAVG         CHANI        LAYVKA        LAYWET
 ---------------------------------------------------------------------------
    1             1             0    -1.000E+00             0             0
    2             1             0    -1.000E+00             0             0
    3             1             0    -1.000E+00             0             0

   INTERPRETATION OF LAYER FLAGS:
                        INTERBLOCK     HORIZONTAL    DATA IN
         LAYER TYPE   TRANSMISSIVITY   ANISOTROPY   ARRAY VKA   WETTABILITY
 LAYER      (LAYTYP)      (LAYAVG)       (CHANI)      (LAYVKA)      (LAYWET)
 ---------------------------------------------------------------------------
    1   CONVERTIBLE      HARMONIC      VARIABLE    VERTICAL K  NON-WETTABLE
    2   CONVERTIBLE      HARMONIC      VARIABLE    VERTICAL K  NON-WETTABLE
    3   CONVERTIBLE      HARMONIC      VARIABLE    VERTICAL K  NON-WETTABLE

     557928 ELEMENTS IN X ARRAY ARE USED BY LPF
         18 ELEMENTS IN IX ARRAY ARE USED BY LPF

 PCG2 -- CONJUGATE GRADIENT SOLUTION PACKAGE, VERSION 2.4, 12/29/98
 MAXIMUM OF    100 CALLS OF SOLUTION ROUTINE
 MAXIMUM OF    100 INTERNAL ITERATIONS PER CALL TO SOLUTION ROUTINE
 MATRIX PRECONDITIONING TYPE :    1
     391952 ELEMENTS IN X ARRAY ARE USED BY PCG
      70000 ELEMENTS IN IX ARRAY ARE USED BY PCG
     743904 ELEMENTS IN Z ARRAY ARE USED BY PCG

 OBS1BAS6 -- OBSERVATION PROCESS, VERSION 1.0, 4/27/99
 INPUT READ FROM UNIT 750
 OBSERVATION GRAPH-DATA OUTPUT FILES
 WILL BE PRINTED AND NAMED USING THE BASE: molok_GW_flow_model

 HEAD OBSERVATIONS -- INPUT READ FROM UNIT 751
 #           CoverageGUID ObjectType ID X Y Time OBNAME
 #GMSCOMMENT ff917aec-359b-4b61-a9a6-95d43a85a11d POINT 8980, 720776.625, 2329814.25 ts_0 hed1
 #GMSCOMMENT ff917aec-359b-4b61-a9a6-95d43a85a11d POINT 8981, 719957.6875, 2330573.0 ts_0 hed2
 #GMSCOMMENT ff917aec-359b-4b61-a9a6-95d43a85a11d POINT 8982, 727710.8125, 2331723.25 ts_0 hed3
 #GMSCOMMENT ff917aec-359b-4b61-a9a6-95d43a85a11d POINT 8983, 713020.5625, 2331159.0 ts_0 hed4
 #GMSCOMMENT ff917aec-359b-4b61-a9a6-95d43a85a11d POINT 8984, 713106.4375, 2331191.0 ts_0 hed5
 #GMSCOMMENT ff917aec-359b-4b61-a9a6-95d43a85a11d POINT 8985, 711602.125, 2331448.5 ts_0 hed6
 #GMSCOMMENT ff917aec-359b-4b61-a9a6-95d43a85a11d POINT 8986, 710618.0625, 2331588.75 ts_0 hed7
 #GMSCOMMENT ff917aec-359b-4b61-a9a6-95d43a85a11d POINT 8987, 708095.1875, 2332511.5 ts_0 hed8
 #GMSCOMMENT ff917aec-359b-4b61-a9a6-95d43a85a11d POINT 8988, 708761.6875, 2332243.0 ts_0 hed9
 #GMSCOMMENT ff917aec-359b-4b61-a9a6-95d43a85a11d POINT 8989, 709429.625, 2331943.5 ts_0 hed10
 #GMSCOMMENT ff917aec-359b-4b61-a9a6-95d43a85a11d POINT 8990, 706585.875, 2333107.25 ts_0 hed11
 #GMSCOMMENT ff917aec-359b-4b61-a9a6-95d43a85a11d POINT 8991, 705332.5, 2334107.0 ts_0 hed12
 #GMSCOMMENT ff917aec-359b-4b61-a9a6-95d43a85a11d POINT 8992, 705972.75, 2333684.25 ts_0 hed13
 #GMSCOMMENT ff917aec-359b-4b61-a9a6-95d43a85a11d POINT 8993, 705306.0625, 2333890.75 ts_0 hed14
 #GMSCOMMENT ff917aec-359b-4b61-a9a6-95d43a85a11d POINT 8994, 708112.75, 2333342.25 ts_0 hed15
 #GMSCOMMENT ff917aec-359b-4b61-a9a6-95d43a85a11d POINT 8995, 705704.125, 2334388.5 ts_0 hed16
 #GMSCOMMENT ff917aec-359b-4b61-a9a6-95d43a85a11d POINT 8996, 705905.3125, 2334422.0 ts_0 hed17
 #GMSCOMMENT ff917aec-359b-4b61-a9a6-95d43a85a11d POINT 8997, 701793.75, 2335478.5 ts_0 hed18
 #GMSCOMMENT ff917aec-359b-4b61-a9a6-95d43a85a11d POINT 8998, 707581.75, 2336564.5 ts_0 hed19
 #GMSCOMMENT ff917aec-359b-4b61-a9a6-95d43a85a11d POINT 8999, 697800.375, 2336260.75 ts_0 hed20
 #GMSCOMMENT ff917aec-359b-4b61-a9a6-95d43a85a11d POINT 9000, 705608.0, 2339770.0 ts_0 hed21
 #GMSCOMMENT ff917aec-359b-4b61-a9a6-95d43a85a11d POINT 9001, 705752.0, 2339802.75 ts_0 hed22
 #GMSCOMMENT ff917aec-359b-4b61-a9a6-95d43a85a11d POINT 9002, 705463.25, 2339799.25 ts_0 hed23
 #GMSCOMMENT ff917aec-359b-4b61-a9a6-95d43a85a11d POINT 9003, 695260.5625, 2338751.75 ts_0 hed24
 #GMSCOMMENT ff917aec-359b-4b61-a9a6-95d43a85a11d POINT 9007, 705085.9375, 2339978.5 ts_0 hed25
 #GMSCOMMENT ff917aec-359b-4b61-a9a6-95d43a85a11d POINT 9008, 703691.4375, 2340761.75 ts_0 hed26
 #GMSCOMMENT ff917aec-359b-4b61-a9a6-95d43a85a11d POINT 9009, 698242.625, 2340356.5 ts_0 hed27
 #GMSCOMMENT ff917aec-359b-4b61-a9a6-95d43a85a11d POINT 9010, 680545.875, 2341168.25 ts_0 hed28
 #GMSCOMMENT ff917aec-359b-4b61-a9a6-95d43a85a11d POINT 9011, 687026.625, 2342132.0 ts_0 hed29
 #GMSCOMMENT ff917aec-359b-4b61-a9a6-95d43a85a11d POINT 9012, 682090.75, 2342353.5 ts_0 hed30
 #GMSCOMMENT ff917aec-359b-4b61-a9a6-95d43a85a11d POINT 9013, 710903.5625, 2343159.25 ts_0 hed31
 #GMSCOMMENT ff917aec-359b-4b61-a9a6-95d43a85a11d POINT 9014, 682417.125, 2344111.0 ts_0 hed32
 #GMSCOMMENT ff917aec-359b-4b61-a9a6-95d43a85a11d POINT 9015, 681977.0, 2344843.5 ts_0 hed33
 #GMSCOMMENT 4f57ceb9-dea0-43fe-a8c3-dced10bb1ad9 POINT 8980, 720776.625, 2329814.25 ts_0 hed34
 #GMSCOMMENT 4f57ceb9-dea0-43fe-a8c3-dced10bb1ad9 POINT 8981, 719957.6875, 2330573.0 ts_0 hed35
 #GMSCOMMENT 4f57ceb9-dea0-43fe-a8c3-dced10bb1ad9 POINT 8982, 727710.8125, 2331723.25 ts_0 hed36
 #GMSCOMMENT 4f57ceb9-dea0-43fe-a8c3-dced10bb1ad9 POINT 8983, 713020.5625, 2331159.0 ts_0 hed37
 #GMSCOMMENT 4f57ceb9-dea0-43fe-a8c3-dced10bb1ad9 POINT 8984, 713106.4375, 2331191.0 ts_0 hed38
 #GMSCOMMENT 4f57ceb9-dea0-43fe-a8c3-dced10bb1ad9 POINT 8985, 711602.125, 2331448.5 ts_0 hed39
 #GMSCOMMENT 4f57ceb9-dea0-43fe-a8c3-dced10bb1ad9 POINT 8986, 710618.0625, 2331588.75 ts_0 hed40
 #GMSCOMMENT 4f57ceb9-dea0-43fe-a8c3-dced10bb1ad9 POINT 8987, 708095.1875, 2332511.5 ts_0 hed41
 #GMSCOMMENT 4f57ceb9-dea0-43fe-a8c3-dced10bb1ad9 POINT 8988, 708761.6875, 2332243.0 ts_0 hed42
 #GMSCOMMENT 4f57ceb9-dea0-43fe-a8c3-dced10bb1ad9 POINT 8989, 709429.625, 2331943.5 ts_0 hed43
 #GMSCOMMENT 4f57ceb9-dea0-43fe-a8c3-dced10bb1ad9 POINT 8990, 706585.875, 2333107.25 ts_0 hed44
 #GMSCOMMENT 4f57ceb9-dea0-43fe-a8c3-dced10bb1ad9 POINT 8991, 705332.5, 2334107.0 ts_0 hed45
 #GMSCOMMENT 4f57ceb9-dea0-43fe-a8c3-dced10bb1ad9 POINT 8992, 705972.75, 2333684.25 ts_0 hed46
 #GMSCOMMENT 4f57ceb9-dea0-43fe-a8c3-dced10bb1ad9 POINT 8993, 705306.0625, 2333890.75 ts_0 hed47
 #GMSCOMMENT 4f57ceb9-dea0-43fe-a8c3-dced10bb1ad9 POINT 8994, 708112.75, 2333342.25 ts_0 hed48
 #GMSCOMMENT 4f57ceb9-dea0-43fe-a8c3-dced10bb1ad9 POINT 8995, 705704.125, 2334388.5 ts_0 hed49
 #GMSCOMMENT 4f57ceb9-dea0-43fe-a8c3-dced10bb1ad9 POINT 8996, 705905.3125, 2334422.0 ts_0 hed50
 #GMSCOMMENT 4f57ceb9-dea0-43fe-a8c3-dced10bb1ad9 POINT 8997, 701793.75, 2335478.5 ts_0 hed51
 #GMSCOMMENT 4f57ceb9-dea0-43fe-a8c3-dced10bb1ad9 POINT 8998, 707581.75, 2336564.5 ts_0 hed52
 #GMSCOMMENT 4f57ceb9-dea0-43fe-a8c3-dced10bb1ad9 POINT 8999, 697800.375, 2336260.75 ts_0 hed53
 #GMSCOMMENT 4f57ceb9-dea0-43fe-a8c3-dced10bb1ad9 POINT 9000, 705608.0, 2339770.0 ts_0 hed54
 #GMSCOMMENT 4f57ceb9-dea0-43fe-a8c3-dced10bb1ad9 POINT 9001, 705752.0, 2339802.75 ts_0 hed55
 #GMSCOMMENT 4f57ceb9-dea0-43fe-a8c3-dced10bb1ad9 POINT 9002, 705463.25, 2339799.25 ts_0 hed56
 #GMSCOMMENT 4f57ceb9-dea0-43fe-a8c3-dced10bb1ad9 POINT 9003, 695260.5625, 2338751.75 ts_0 hed57
 #GMSCOMMENT 4f57ceb9-dea0-43fe-a8c3-dced10bb1ad9 POINT 9007, 705085.9375, 2339978.5 ts_0 hed58
 #GMSCOMMENT 4f57ceb9-dea0-43fe-a8c3-dced10bb1ad9 POINT 9008, 703691.4375, 2340761.75 ts_0 hed59
 #GMSCOMMENT 4f57ceb9-dea0-43fe-a8c3-dced10bb1ad9 POINT 9009, 698242.625, 2340356.5 ts_0 hed60
 #GMSCOMMENT 4f57ceb9-dea0-43fe-a8c3-dced10bb1ad9 POINT 9010, 680545.875, 2341168.25 ts_0 hed61
 #GMSCOMMENT 4f57ceb9-dea0-43fe-a8c3-dced10bb1ad9 POINT 9011, 687026.625, 2342132.0 ts_0 hed62
 #GMSCOMMENT 4f57ceb9-dea0-43fe-a8c3-dced10bb1ad9 POINT 9012, 682090.75, 2342353.5 ts_0 hed63
 #GMSCOMMENT 4f57ceb9-dea0-43fe-a8c3-dced10bb1ad9 POINT 9013, 710903.5625, 2343159.25 ts_0 hed64
 #GMSCOMMENT 4f57ceb9-dea0-43fe-a8c3-dced10bb1ad9 POINT 9014, 682417.125, 2344111.0 ts_0 hed65
 #GMSCOMMENT 4f57ceb9-dea0-43fe-a8c3-dced10bb1ad9 POINT 9015, 681977.0, 2344843.5 ts_0 hed66
 #GMSCOMMENT 7b1f9717-a10b-43e0-a4c4-7c2ee8f97be8 POINT 8980, 720776.625, 2329814.25 ts_0 hed67
 #GMSCOMMENT 7b1f9717-a10b-43e0-a4c4-7c2ee8f97be8 POINT 8981, 719957.6875, 2330573.0 ts_0 hed68
 #GMSCOMMENT 7b1f9717-a10b-43e0-a4c4-7c2ee8f97be8 POINT 8982, 727710.8125, 2331723.25 ts_0 hed69
 #GMSCOMMENT 7b1f9717-a10b-43e0-a4c4-7c2ee8f97be8 POINT 8983, 713020.5625, 2331159.0 ts_0 hed70
 #GMSCOMMENT 7b1f9717-a10b-43e0-a4c4-7c2ee8f97be8 POINT 8984, 713106.4375, 2331191.0 ts_0 hed71
 #GMSCOMMENT 7b1f9717-a10b-43e0-a4c4-7c2ee8f97be8 POINT 8985, 711602.125, 2331448.5 ts_0 hed72
 #GMSCOMMENT 7b1f9717-a10b-43e0-a4c4-7c2ee8f97be8 POINT 8986, 710618.0625, 2331588.75 ts_0 hed73
 #GMSCOMMENT 7b1f9717-a10b-43e0-a4c4-7c2ee8f97be8 POINT 8987, 708095.1875, 2332511.5 ts_0 hed74
 #GMSCOMMENT 7b1f9717-a10b-43e0-a4c4-7c2ee8f97be8 POINT 8988, 708761.6875, 2332243.0 ts_0 hed75
 #GMSCOMMENT 7b1f9717-a10b-43e0-a4c4-7c2ee8f97be8 POINT 8989, 709429.625, 2331943.5 ts_0 hed76
 #GMSCOMMENT 7b1f9717-a10b-43e0-a4c4-7c2ee8f97be8 POINT 8990, 706585.875, 2333107.25 ts_0 hed77
 #GMSCOMMENT 7b1f9717-a10b-43e0-a4c4-7c2ee8f97be8 POINT 8991, 705332.5, 2334107.0 ts_0 hed78
 #GMSCOMMENT 7b1f9717-a10b-43e0-a4c4-7c2ee8f97be8 POINT 8992, 705972.75, 2333684.25 ts_0 hed79
 #GMSCOMMENT 7b1f9717-a10b-43e0-a4c4-7c2ee8f97be8 POINT 8993, 705306.0625, 2333890.75 ts_0 hed80
 #GMSCOMMENT 7b1f9717-a10b-43e0-a4c4-7c2ee8f97be8 POINT 8994, 708112.75, 2333342.25 ts_0 hed81
 #GMSCOMMENT 7b1f9717-a10b-43e0-a4c4-7c2ee8f97be8 POINT 8995, 705704.125, 2334388.5 ts_0 hed82
 #GMSCOMMENT 7b1f9717-a10b-43e0-a4c4-7c2ee8f97be8 POINT 8996, 705905.3125, 2334422.0 ts_0 hed83
 #GMSCOMMENT 7b1f9717-a10b-43e0-a4c4-7c2ee8f97be8 POINT 8997, 701793.75, 2335478.5 ts_0 hed84
 #GMSCOMMENT 7b1f9717-a10b-43e0-a4c4-7c2ee8f97be8 POINT 8998, 707581.75, 2336564.5 ts_0 hed85
 #GMSCOMMENT 7b1f9717-a10b-43e0-a4c4-7c2ee8f97be8 POINT 8999, 697800.375, 2336260.75 ts_0 hed86
 #GMSCOMMENT 7b1f9717-a10b-43e0-a4c4-7c2ee8f97be8 POINT 9001, 706342.41756169, 2339547.834997 ts_0 hed87
 #GMSCOMMENT 7b1f9717-a10b-43e0-a4c4-7c2ee8f97be8 POINT 9002, 704491.87862562, 2340317.6591944 ts_0 hed88
 #GMSCOMMENT 7b1f9717-a10b-43e0-a4c4-7c2ee8f97be8 POINT 9003, 695260.5625, 2338751.75 ts_0 hed89
 #GMSCOMMENT 7b1f9717-a10b-43e0-a4c4-7c2ee8f97be8 POINT 9004, 715401.625, 2339002.5 ts_0 hed90
 #GMSCOMMENT 7b1f9717-a10b-43e0-a4c4-7c2ee8f97be8 POINT 9005, 715797.6875, 2339623.5 ts_0 hed91
 #GMSCOMMENT 7b1f9717-a10b-43e0-a4c4-7c2ee8f97be8 POINT 9006, 715944.25, 2339379.5 ts_0 hed92
 #GMSCOMMENT 7b1f9717-a10b-43e0-a4c4-7c2ee8f97be8 POINT 9008, 703691.4375, 2340761.75 ts_0 hed93
 #GMSCOMMENT 7b1f9717-a10b-43e0-a4c4-7c2ee8f97be8 POINT 9009, 698242.625, 2340356.5 ts_0 hed94
 #GMSCOMMENT 7b1f9717-a10b-43e0-a4c4-7c2ee8f97be8 POINT 9010, 680545.875, 2341168.25 ts_0 hed95
 #GMSCOMMENT 7b1f9717-a10b-43e0-a4c4-7c2ee8f97be8 POINT 9011, 687026.625, 2342132.0 ts_0 hed96
 #GMSCOMMENT 7b1f9717-a10b-43e0-a4c4-7c2ee8f97be8 POINT 9012, 682090.75, 2342353.5 ts_0 hed97
 #GMSCOMMENT 7b1f9717-a10b-43e0-a4c4-7c2ee8f97be8 POINT 9013, 710903.5625, 2343159.25 ts_0 hed98
 #GMSCOMMENT 7b1f9717-a10b-43e0-a4c4-7c2ee8f97be8 POINT 9014, 682417.125, 2344111.0 ts_0 hed99
 #GMSCOMMENT 7b1f9717-a10b-43e0-a4c4-7c2ee8f97be8 POINT 9015, 681977.0, 2344843.5 ts_0 hed100
 #GMSCOMMENT 1ad6a203-5a74-4dd0-abae-fab22108d553 POINT 8980, 720776.625, 2329814.25 ts_0 hed101
 #GMSCOMMENT 1ad6a203-5a74-4dd0-abae-fab22108d553 POINT 8981, 719957.6875, 2330573.0 ts_0 hed102
 #GMSCOMMENT 1ad6a203-5a74-4dd0-abae-fab22108d553 POINT 8982, 727710.8125, 2331723.25 ts_0 hed103
 #GMSCOMMENT 1ad6a203-5a74-4dd0-abae-fab22108d553 POINT 8983, 713020.5625, 2331159.0 ts_0 hed104
 #GMSCOMMENT 1ad6a203-5a74-4dd0-abae-fab22108d553 POINT 8984, 713106.4375, 2331191.0 ts_0 hed105
 #GMSCOMMENT 1ad6a203-5a74-4dd0-abae-fab22108d553 POINT 8985, 711602.125, 2331448.5 ts_0 hed106
 #GMSCOMMENT 1ad6a203-5a74-4dd0-abae-fab22108d553 POINT 8986, 710618.0625, 2331588.75 ts_0 hed107
 #GMSCOMMENT 1ad6a203-5a74-4dd0-abae-fab22108d553 POINT 8987, 708095.1875, 2332511.5 ts_0 hed108
 #GMSCOMMENT 1ad6a203-5a74-4dd0-abae-fab22108d553 POINT 8988, 708761.6875, 2332243.0 ts_0 hed109
 #GMSCOMMENT 1ad6a203-5a74-4dd0-abae-fab22108d553 POINT 8989, 709429.625, 2331943.5 ts_0 hed110
 #GMSCOMMENT 1ad6a203-5a74-4dd0-abae-fab22108d553 POINT 8990, 706585.875, 2333107.25 ts_0 hed111
 #GMSCOMMENT 1ad6a203-5a74-4dd0-abae-fab22108d553 POINT 8991, 705332.5, 2334107.0 ts_0 hed112
 #GMSCOMMENT 1ad6a203-5a74-4dd0-abae-fab22108d553 POINT 8992, 705972.75, 2333684.25 ts_0 hed113
 #GMSCOMMENT 1ad6a203-5a74-4dd0-abae-fab22108d553 POINT 8993, 705306.0625, 2333890.75 ts_0 hed114
 #GMSCOMMENT 1ad6a203-5a74-4dd0-abae-fab22108d553 POINT 8994, 708112.75, 2333342.25 ts_0 hed115
 #GMSCOMMENT 1ad6a203-5a74-4dd0-abae-fab22108d553 POINT 8995, 705704.125, 2334388.5 ts_0 hed116
 #GMSCOMMENT 1ad6a203-5a74-4dd0-abae-fab22108d553 POINT 8996, 705905.3125, 2334422.0 ts_0 hed117
 #GMSCOMMENT 1ad6a203-5a74-4dd0-abae-fab22108d553 POINT 8997, 701793.75, 2335478.5 ts_0 hed118
 #GMSCOMMENT 1ad6a203-5a74-4dd0-abae-fab22108d553 POINT 8998, 707581.75, 2336564.5 ts_0 hed119
 #GMSCOMMENT 1ad6a203-5a74-4dd0-abae-fab22108d553 POINT 8999, 697800.375, 2336260.75 ts_0 hed120
 #GMSCOMMENT 1ad6a203-5a74-4dd0-abae-fab22108d553 POINT 9001, 706342.41756169, 2339547.834997 ts_0 hed121
 #GMSCOMMENT 1ad6a203-5a74-4dd0-abae-fab22108d553 POINT 9002, 704491.87862562, 2340317.6591944 ts_0 hed122
 #GMSCOMMENT 1ad6a203-5a74-4dd0-abae-fab22108d553 POINT 9003, 695260.5625, 2338751.75 ts_0 hed123
 #GMSCOMMENT 1ad6a203-5a74-4dd0-abae-fab22108d553 POINT 9008, 703691.4375, 2340761.75 ts_0 hed124
 #GMSCOMMENT 1ad6a203-5a74-4dd0-abae-fab22108d553 POINT 9009, 698242.625, 2340356.5 ts_0 hed125
 #GMSCOMMENT 1ad6a203-5a74-4dd0-abae-fab22108d553 POINT 9010, 680545.875, 2341168.25 ts_0 hed126
 #GMSCOMMENT 1ad6a203-5a74-4dd0-abae-fab22108d553 POINT 9011, 687026.625, 2342132.0 ts_0 hed127
 #GMSCOMMENT 1ad6a203-5a74-4dd0-abae-fab22108d553 POINT 9012, 682090.75, 2342353.5 ts_0 hed128
 #GMSCOMMENT 1ad6a203-5a74-4dd0-abae-fab22108d553 POINT 9013, 710903.5625, 2343159.25 ts_0 hed129
 #GMSCOMMENT 1ad6a203-5a74-4dd0-abae-fab22108d553 POINT 9014, 682417.125, 2344111.0 ts_0 hed130
 #GMSCOMMENT 1ad6a203-5a74-4dd0-abae-fab22108d553 POINT 9015, 681977.0, 2344843.5 ts_0 hed131

 NUMBER OF HEADS....................................:  131
   NUMBER OF MULTILAYER HEADS.......................:    0
   MAXIMUM NUMBER OF LAYERS FOR MULTILAYER HEADS....:    3

 OBS1DRN6 -- OBSERVATION PROCESS (DRAIN FLOW OBSERVATIONS)
 VERSION 1.0, 10/15/98
 INPUT READ FROM UNIT  754
 #           CoverageGUID ObjectType ID X Y Time OBNAME
 #GMSCOMMENT 67fbf3b0-1d24-458e-86ab-e1451d76dd5f ARC 10 718060.54504649 2341329.0520495 1.0 no_dr0
 #GMSCOMMENT 67fbf3b0-1d24-458e-86ab-e1451d76dd5f ARC 12 720382.69790709 2340578.837525 1.0 no_dr1
 #GMSCOMMENT 67fbf3b0-1d24-458e-86ab-e1451d76dd5f ARC 14 720774.1304449 2339391.4968785 1.0 no_dr2
 #GMSCOMMENT 67fbf3b0-1d24-458e-86ab-e1451d76dd5f ARC 15 720012.02112684 2338071.3696716 1.0 no_dr3
 #GMSCOMMENT 67fbf3b0-1d24-458e-86ab-e1451d76dd5f ARC 16 720684.64870477 2337995.7085201 1.0 no_dr4
 #GMSCOMMENT 67fbf3b0-1d24-458e-86ab-e1451d76dd5f ARC 17 720338.91880862 2338718.6919424 1.0 no_dr5
 #GMSCOMMENT 67fbf3b0-1d24-458e-86ab-e1451d76dd5f ARC 18 719960.13619933 2338600.2062512 1.0 no_dr6
 #GMSCOMMENT 67fbf3b0-1d24-458e-86ab-e1451d76dd5f ARC 20 725381.09367677 2341981.7858681 1.0 no_dr7
 #GMSCOMMENT 67fbf3b0-1d24-458e-86ab-e1451d76dd5f ARC 21 725839.47815555 2341161.1627055 1.0 no_dr8
 #GMSCOMMENT 67fbf3b0-1d24-458e-86ab-e1451d76dd5f ARC 22 725429.64835313 2338282.9514032 1.0 no_dr9
 #GMSCOMMENT 67fbf3b0-1d24-458e-86ab-e1451d76dd5f ARC 23 725576.54757833 2337075.1252967 1.0 no_dr10
 #GMSCOMMENT 67fbf3b0-1d24-458e-86ab-e1451d76dd5f ARC 25 733526.05162401 2341189.0270023 1.0 no_dr11
 #GMSCOMMENT 67fbf3b0-1d24-458e-86ab-e1451d76dd5f ARC 6 712990.74892754 2341866.8513276 1.0 no_dr12
 #GMSCOMMENT 67fbf3b0-1d24-458e-86ab-e1451d76dd5f ARC 8 715181.8831648 2341102.2240495 1.0 no_dr13
 #GMSCOMMENT 72e0bcd9-9ce3-4335-a1b4-71fbc0464a72 ARC 10 718060.54504649 2341329.0520495 1.0 no_dr14
 #GMSCOMMENT 72e0bcd9-9ce3-4335-a1b4-71fbc0464a72 ARC 12 720382.69790709 2340578.837525 1.0 no_dr15
 #GMSCOMMENT 72e0bcd9-9ce3-4335-a1b4-71fbc0464a72 ARC 14 720774.1304449 2339391.4968785 1.0 no_dr16
 #GMSCOMMENT 72e0bcd9-9ce3-4335-a1b4-71fbc0464a72 ARC 15 720012.02112684 2338071.3696716 1.0 no_dr17
 #GMSCOMMENT 72e0bcd9-9ce3-4335-a1b4-71fbc0464a72 ARC 16 720684.64870477 2337995.7085201 1.0 no_dr18
 #GMSCOMMENT 72e0bcd9-9ce3-4335-a1b4-71fbc0464a72 ARC 17 720338.91880862 2338718.6919424 1.0 no_dr19
 #GMSCOMMENT 72e0bcd9-9ce3-4335-a1b4-71fbc0464a72 ARC 18 719960.13619933 2338600.2062512 1.0 no_dr20
 #GMSCOMMENT 72e0bcd9-9ce3-4335-a1b4-71fbc0464a72 ARC 20 725381.09367677 2341981.7858681 1.0 no_dr21
 #GMSCOMMENT 72e0bcd9-9ce3-4335-a1b4-71fbc0464a72 ARC 21 725839.47815555 2341161.1627055 1.0 no_dr22
 #GMSCOMMENT 72e0bcd9-9ce3-4335-a1b4-71fbc0464a72 ARC 22 725429.64835313 2338282.9514032 1.0 no_dr23
 #GMSCOMMENT 72e0bcd9-9ce3-4335-a1b4-71fbc0464a72 ARC 23 725576.54757833 2337075.1252967 1.0 no_dr24
 #GMSCOMMENT 72e0bcd9-9ce3-4335-a1b4-71fbc0464a72 ARC 25 733526.05162401 2341189.0270023 1.0 no_dr25
 #GMSCOMMENT 72e0bcd9-9ce3-4335-a1b4-71fbc0464a72 ARC 6 712990.74892754 2341866.8513276 1.0 no_dr26
 #GMSCOMMENT 72e0bcd9-9ce3-4335-a1b4-71fbc0464a72 ARC 8 715181.8831648 2341102.2240495 1.0 no_dr27

 NUMBER OF FLOW-OBSERVATION DRAIN-CELL GROUPS.....:     28
   NUMBER OF CELLS IN DRAIN-CELL GROUPS...........:    779
   NUMBER OF DRAIN-CELL FLOWS.....................:     28

 OBS1BAS6F -- OBSERVATION PROCESS (CONSTANT-HEAD BOUNDARY FLOW OBSERVATIONS)
 VERSION 1.0, 12/03/99
 INPUT READ FROM UNIT 755
 #           CoverageGUID ObjectType ID X Y Time OBNAME
 #GMSCOMMENT 67fbf3b0-1d24-458e-86ab-e1451d76dd5f ARC 1 681233.93985294 2343576.11277 1.0 no_ch0
 #GMSCOMMENT 67fbf3b0-1d24-458e-86ab-e1451d76dd5f ARC 11 722518.23629593 2341947.8623826 1.0 no_ch1
 #GMSCOMMENT 67fbf3b0-1d24-458e-86ab-e1451d76dd5f ARC 19 730319.70236208 2343206.4557739 1.0 no_ch2
 #GMSCOMMENT 67fbf3b0-1d24-458e-86ab-e1451d76dd5f ARC 2 704734.24152427 2344158.2161452 1.0 no_ch3
 #GMSCOMMENT 67fbf3b0-1d24-458e-86ab-e1451d76dd5f ARC 24 719694.91627754 2329056.6840299 1.0 no_ch4
 #GMSCOMMENT 67fbf3b0-1d24-458e-86ab-e1451d76dd5f ARC 3 685206.95787271 2333336.8591783 1.0 no_ch5
 #GMSCOMMENT 67fbf3b0-1d24-458e-86ab-e1451d76dd5f ARC 5 713788.23830663 2342667.9254128 1.0 no_ch6
 #GMSCOMMENT 67fbf3b0-1d24-458e-86ab-e1451d76dd5f ARC 6353 688802.80730133 2345915.8320445 1.0 no_ch7
 #GMSCOMMENT 67fbf3b0-1d24-458e-86ab-e1451d76dd5f ARC 7 716229.52259392 2342545.2648797 1.0 no_ch8
 #GMSCOMMENT 67fbf3b0-1d24-458e-86ab-e1451d76dd5f ARC 9 718723.62082238 2342496.6912493 1.0 no_ch9
 #GMSCOMMENT 72e0bcd9-9ce3-4335-a1b4-71fbc0464a72 ARC 1 681233.93985294 2343576.11277 1.0 no_ch10
 #GMSCOMMENT 72e0bcd9-9ce3-4335-a1b4-71fbc0464a72 ARC 11 722518.23629593 2341947.8623826 1.0 no_ch11
 #GMSCOMMENT 72e0bcd9-9ce3-4335-a1b4-71fbc0464a72 ARC 19 730319.70236208 2343206.4557739 1.0 no_ch12
 #GMSCOMMENT 72e0bcd9-9ce3-4335-a1b4-71fbc0464a72 ARC 2 704734.24152427 2344158.2161452 1.0 no_ch13
 #GMSCOMMENT 72e0bcd9-9ce3-4335-a1b4-71fbc0464a72 ARC 24 719694.91627754 2329056.6840299 1.0 no_ch14
 #GMSCOMMENT 72e0bcd9-9ce3-4335-a1b4-71fbc0464a72 ARC 3 685206.95787271 2333336.8591783 1.0 no_ch15
 #GMSCOMMENT 72e0bcd9-9ce3-4335-a1b4-71fbc0464a72 ARC 5 713788.23830663 2342667.9254128 1.0 no_ch16
 #GMSCOMMENT 72e0bcd9-9ce3-4335-a1b4-71fbc0464a72 ARC 6353 688802.80730133 2345915.8320445 1.0 no_ch17
 #GMSCOMMENT 72e0bcd9-9ce3-4335-a1b4-71fbc0464a72 ARC 7 716229.52259392 2342545.2648797 1.0 no_ch18
 #GMSCOMMENT 72e0bcd9-9ce3-4335-a1b4-71fbc0464a72 ARC 9 718723.62082238 2342496.6912493 1.0 no_ch19

 NUMBER OF FLOW-OBSERVATION CONSTANT-HEAD-CELL GROUPS:   20
   NUMBER OF CELLS IN CONSTANT-HEAD-CELL GROUPS......: 2508
   NUMBER OF CONSTANT-HEAD-CELL FLOWS................:   20

      23656 ELEMENTS IN X ARRAY ARE USED FOR OBSERVATIONS
       2450 ELEMENTS IN Z ARRAY ARE USED FOR OBSERVATIONS
       1697 ELEMENTS IN IX ARRAY ARE USED FOR OBSERVATIONS

 COMMON ERROR VARIANCE FOR ALL OBSERVATIONS SET TO:       1.000    

     973536  ELEMENTS OF X ARRAY USED OUT OF     973536
     746354  ELEMENTS OF Z ARRAY USED OUT OF     746354
      71715  ELEMENTS OF IX ARRAY USED OUT OF      71715
          0  ELEMENTS OF XHS ARRAY USED OUT OF          1

 HEAD OBSERVATION VARIANCES ARE MULTIPLIED BY:       1.000    

 OBSERVED HEAD DATA -- TIME OFFSETS ARE MULTIPLIED BY:   1.0000    

                    REFER.
       OBSERVATION  STRESS    TIME                              STATISTIC   PLOT
  OBS#    NAME      PERIOD   OFFSET    OBSERVATION  STATISTIC     TYPE      SYM.
     1 hed1             1    0.000       1.410       6.080      STD. DEV.      1
     2 hed2             1    0.000       1.510       6.080      STD. DEV.      1
     3 hed3             1    0.000       1.300       6.080      STD. DEV.      1
     4 hed4             1    0.000      0.6000       6.080      STD. DEV.      1
     5 hed5             1    0.000      0.5500       6.080      STD. DEV.      1
     6 hed6             1    0.000      0.5200       6.080      STD. DEV.      1
     7 hed7             1    0.000      0.3700       6.080      STD. DEV.      1
     8 hed8             1    0.000      0.3600       6.080      STD. DEV.      1
     9 hed9             1    0.000      0.3400       6.080      STD. DEV.      1
    10 hed10            1    0.000      0.3400       6.080      STD. DEV.      1
    11 hed11            1    0.000      0.3000       6.080      STD. DEV.      1
    12 hed12            1    0.000      0.3900       6.080      STD. DEV.      1
    13 hed13            1    0.000      0.7100       6.080      STD. DEV.      1
    14 hed14            1    0.000      0.7500       6.080      STD. DEV.      1
    15 hed15            1    0.000      0.5000       6.080      STD. DEV.      1
    16 hed16            1    0.000      0.8100       6.080      STD. DEV.      1
    17 hed17            1    0.000      0.7600       6.080      STD. DEV.      1
    18 hed18            1    0.000      0.7500       6.080      STD. DEV.      1
    19 hed19            1    0.000       1.900       6.080      STD. DEV.      1
    20 hed20            1    0.000       1.590       6.080      STD. DEV.      1
    21 hed21            1    0.000       3.270       6.080      STD. DEV.      1
    22 hed22            1    0.000       2.260       6.080      STD. DEV.      1
    23 hed23            1    0.000       3.570       6.080      STD. DEV.      1
    24 hed24            1    0.000      0.9100       6.080      STD. DEV.      1
    25 hed25            1    0.000       3.730       6.080      STD. DEV.      1
    26 hed26            1    0.000       3.560       6.080      STD. DEV.      1
    27 hed27            1    0.000       1.730       6.080      STD. DEV.      1
    28 hed28            1    0.000       2.040       6.080      STD. DEV.      1
    29 hed29            1    0.000       1.720       6.080      STD. DEV.      1
    30 hed30            1    0.000       1.740       6.080      STD. DEV.      1
    31 hed31            1    0.000       2.740       6.080      STD. DEV.      1
    32 hed32            1    0.000      0.1800       6.080      STD. DEV.      1
    33 hed33            1    0.000       2.230       6.080      STD. DEV.      1
    34 hed34            1    0.000       1.410       3.040      STD. DEV.      1
    35 hed35            1    0.000       1.510       3.040      STD. DEV.      1
    36 hed36            1    0.000       1.300       3.040      STD. DEV.      1
    37 hed37            1    0.000      0.6000       3.040      STD. DEV.      1
    38 hed38            1    0.000      0.5500       3.040      STD. DEV.      1
    39 hed39            1    0.000      0.5200       3.040      STD. DEV.      1
    40 hed40            1    0.000      0.3700       3.040      STD. DEV.      1
    41 hed41            1    0.000      0.3600       3.040      STD. DEV.      1
    42 hed42            1    0.000      0.3400       3.040      STD. DEV.      1
    43 hed43            1    0.000      0.3400       3.040      STD. DEV.      1
    44 hed44            1    0.000      0.3000       3.040      STD. DEV.      1
    45 hed45            1    0.000      0.3900       3.040      STD. DEV.      1
    46 hed46            1    0.000      0.7100       3.040      STD. DEV.      1