# MF2K-MT3DMS LINKER FILE
#
OUTPUT_FILE_NAME molok_GW_flow_model_Modpath_Run.hff
OUTPUT_FILE_UNIT
OUTPUT_FILE_HEADER standard
OUTPUT_FILE_FORMAT unformatted
